Circuit: * C:\Users\Ben Cunningham\Documents\KiCAD_Projects\Blinking_LED_with_watch_battary\LTspice\Blinking_LED_with_watch_battary.asc

Direct Newton iteration for .op point succeeded.

Date: Fri Jun 21 01:03:52 2019
Total elapsed time: 0.134 seconds.

tnom = 27
temp = 27
method = modified trap
totiter = 5100
traniter = 5093
tranpoints = 1682
accept = 1525
rejected = 157
matrix size = 16
fillins = 0
solver = Normal
Matrix Compiler1: 466 bytes object code size  1.2/1.2/[0.9]
Matrix Compiler2: off  [1.1]/1.3/1.3

